# generated using pymatgen
data_EuInO3
_symmetry_space_group_name_H-M   'P 1'
_cell_length_a   6.41993837
_cell_length_b   6.41993687
_cell_length_c   12.31365353
_cell_angle_alpha   90.00033456
_cell_angle_beta   89.99982850
_cell_angle_gamma   120.00015066
_symmetry_Int_Tables_number   1
_chemical_formula_structural   EuInO3
_chemical_formula_sum   'Eu6 In6 O18'
_cell_volume   439.51987488
_cell_formula_units_Z   6
loop_
 _symmetry_equiv_pos_site_id
 _symmetry_equiv_pos_as_xyz
  1  'x, y, z'
loop_
 _atom_site_type_symbol
 _atom_site_label
 _atom_site_symmetry_multiplicity
 _atom_site_fract_x
 _atom_site_fract_y
 _atom_site_fract_z
 _atom_site_occupancy
  Eu  Eu0  1  0.66666588  0.33333338  0.96630889  1
  Eu  Eu1  1  0.33333444  0.66666601  0.46632198  1
  Eu  Eu2  1  0.66666556  0.33333288  0.46632197  1
  Eu  Eu3  1  0.33333052  0.66666740  0.96631130  1
  Eu  Eu4  1  0.00000210  -0.00000142  0.99335807  1
  Eu  Eu5  1  -0.00000040  -0.00000128  0.49334168  1
  In  In6  1  0.66668110  0.66667566  0.72707994  1
  In  In7  1  -0.00000578  0.33331652  0.72708086  1
  In  In8  1  0.33333563  0.33332418  0.22707750  1
  In  In9  1  -0.00001010  0.66666555  0.22707652  1
  In  In10  1  0.33332145  0.00000403  0.72708155  1
  In  In11  1  0.66667600  0.00001163  0.22707654  1
  O  O12  1  0.68674078  0.68674169  0.89709380  1
  O  O13  1  0.00000135  0.31326016  0.89709435  1
  O  O14  1  0.31327180  0.31326728  0.39708819  1
  O  O15  1  -0.00000423  0.68672736  0.39708805  1
  O  O16  1  0.31325833  -0.00000127  0.89709426  1
  O  O17  1  0.68673241  0.00000309  0.39708847  1
  O  O18  1  0.64647514  0.64646884  0.55765709  1
  O  O19  1  -0.00000568  0.35352458  0.55765737  1
  O  O20  1  0.35354457  0.35355143  0.05764518  1
  O  O21  1  -0.00000067  0.64645748  0.05764301  1
  O  O22  1  0.35353183  0.00000574  0.55765799  1
  O  O23  1  0.64645785  -0.00000049  0.05764327  1
  O  O24  1  -0.00000011  -0.00000164  0.70249632  1
  O  O25  1  0.00000078  0.00000083  0.20251587  1
  O  O26  1  0.66666495  0.33333232  0.74596523  1
  O  O27  1  0.33333376  0.66666745  0.24596903  1
  O  O28  1  0.66666723  0.33333374  0.24596973  1
  O  O29  1  0.33333247  0.66666485  0.74596799  1
