# generated using pymatgen
data_CsPO3
_symmetry_space_group_name_H-M   'P 1'
_cell_length_a   4.58139663
_cell_length_b   6.50273785
_cell_length_c   13.32108231
_cell_angle_alpha   90.00000000
_cell_angle_beta   90.00000000
_cell_angle_gamma   90.00000000
_symmetry_Int_Tables_number   1
_chemical_formula_structural   CsPO3
_chemical_formula_sum   'Cs4 P4 O12'
_cell_volume   396.85663911
_cell_formula_units_Z   4
loop_
 _symmetry_equiv_pos_site_id
 _symmetry_equiv_pos_as_xyz
  1  'x, y, z'
loop_
 _atom_site_type_symbol
 _atom_site_label
 _atom_site_symmetry_multiplicity
 _atom_site_fract_x
 _atom_site_fract_y
 _atom_site_fract_z
 _atom_site_occupancy
  Cs  Cs0  1  0.23428900  0.25000000  0.59661219  1
  Cs  Cs1  1  0.76571100  0.75000000  0.40338781  1
  Cs  Cs2  1  0.26571100  0.75000000  0.09661219  1
  Cs  Cs3  1  0.73428900  0.25000000  0.90338781  1
  P  P4  1  0.31287799  0.25000000  0.32163279  1
  P  P5  1  0.68712201  0.75000000  0.67836721  1
  P  P6  1  0.18712201  0.75000000  0.82163279  1
  P  P7  1  0.81287799  0.25000000  0.17836721  1
  O  O8  1  0.25878226  0.05292021  0.37483051  1
  O  O9  1  0.74121774  0.94707979  0.62516949  1
  O  O10  1  0.24121774  0.94707979  0.87483051  1
  O  O11  1  0.74121774  0.55292021  0.62516949  1
  O  O12  1  0.75878226  0.05292021  0.12516949  1
  O  O13  1  0.25878226  0.44707979  0.37483051  1
  O  O14  1  0.75878226  0.44707979  0.12516949  1
  O  O15  1  0.24121774  0.55292021  0.87483051  1
  O  O16  1  0.14957990  0.25000000  0.21475937  1
  O  O17  1  0.85042010  0.75000000  0.78524063  1
  O  O18  1  0.35042010  0.75000000  0.71475937  1
  O  O19  1  0.64957990  0.25000000  0.28524063  1
