# generated using pymatgen
data_CaCO3
_symmetry_space_group_name_H-M   'P 1'
_cell_length_a   6.32756300
_cell_length_b   7.61436105
_cell_length_c   12.62038586
_cell_angle_alpha   93.85242061
_cell_angle_beta   98.84744664
_cell_angle_gamma   106.41521210
_symmetry_Int_Tables_number   1
_chemical_formula_structural   CaCO3
_chemical_formula_sum   'Ca10 C10 O30'
_cell_volume   572.38875669
_cell_formula_units_Z   10
loop_
 _symmetry_equiv_pos_site_id
 _symmetry_equiv_pos_as_xyz
  1  'x, y, z'
loop_
 _atom_site_type_symbol
 _atom_site_label
 _atom_site_symmetry_multiplicity
 _atom_site_fract_x
 _atom_site_fract_y
 _atom_site_fract_z
 _atom_site_occupancy
  Ca  Ca0  1  0.66603234  0.35294026  0.44231031  1
  Ca  Ca1  1  0.33396766  0.64705974  0.55768969  1
  Ca  Ca2  1  0.22602489  0.11989912  0.61898928  1
  Ca  Ca3  1  0.77397511  0.88010088  0.38101072  1
  Ca  Ca4  1  0.97518950  0.51823549  0.21209404  1
  Ca  Ca5  1  0.02481050  0.48176451  0.78790596  1
  Ca  Ca6  1  0.08959232  0.06902058  0.17223526  1
  Ca  Ca7  1  0.91040768  0.93097942  0.82776474  1
  Ca  Ca8  1  0.48750486  0.24904738  0.97842719  1
  Ca  Ca9  1  0.51249514  0.75095262  0.02157281  1
  C  C10  1  0.50401227  0.48155435  0.21066376  1
  C  C11  1  0.49598773  0.51844565  0.78933624  1
  C  C12  1  0.12352087  0.31850811  0.40080111  1
  C  C13  1  0.87647913  0.68149189  0.59919889  1
  C  C14  1  0.94073378  0.26238192  0.99471953  1
  C  C15  1  0.05926622  0.73761808  0.00528047  1
  C  C16  1  0.45146647  0.96871658  0.80003428  1
  C  C17  1  0.54853353  0.03128342  0.19996572  1
  C  C18  1  0.78331464  0.16202488  0.61496523  1
  C  C19  1  0.21668536  0.83797512  0.38503477  1
  O  O20  1  0.09399555  0.18788919  0.97786231  1
  O  O21  1  0.90600445  0.81211081  0.02213769  1
  O  O22  1  0.57754445  0.49731807  0.11906684  1
  O  O23  1  0.42245555  0.50268193  0.88093316  1
  O  O24  1  0.29880694  0.40570769  0.21328610  1
  O  O25  1  0.70119306  0.59429231  0.78671390  1
  O  O26  1  0.85488757  0.12228600  0.52790598  1
  O  O27  1  0.14511243  0.87771400  0.47209402  1
  O  O28  1  0.65318501  0.54294114  0.29781754  1
  O  O29  1  0.34681499  0.45705886  0.70218246  1
  O  O30  1  0.29799974  0.33493292  0.47365862  1
  O  O31  1  0.70200026  0.66506708  0.52634138  1
  O  O32  1  0.04129997  0.45666744  0.39627457  1
  O  O33  1  0.95870003  0.54333256  0.60372543  1
  O  O34  1  0.86464573  0.24525072  0.08485235  1
  O  O35  1  0.13535427  0.75474928  0.91514765  1
  O  O36  1  0.32831190  0.07886111  0.80426311  1
  O  O37  1  0.67168810  0.92113889  0.19573689  1
  O  O38  1  0.45260552  0.87706079  0.71209226  1
  O  O39  1  0.54739448  0.12293921  0.28790774  1
  O  O40  1  0.58199949  0.96039405  0.88918150  1
  O  O41  1  0.41800051  0.03960595  0.11081850  1
  O  O42  1  0.60145143  0.20439894  0.60625525  1
  O  O43  1  0.39854857  0.79560106  0.39374475  1
  O  O44  1  0.85117482  0.34431252  0.92358043  1
  O  O45  1  0.14882518  0.65568748  0.07641957  1
  O  O46  1  0.02969298  0.17161524  0.33677171  1
  O  O47  1  0.97030702  0.82838476  0.66322829  1
  O  O48  1  0.90991610  0.17204751  0.70781021  1
  O  O49  1  0.09008390  0.82795249  0.29218979  1
