# generated using pymatgen
data_YCuO3
_symmetry_space_group_name_H-M   'P 1'
_cell_length_a   6.18234441
_cell_length_b   6.18234395
_cell_length_c   11.02980383
_cell_angle_alpha   89.99989964
_cell_angle_beta   89.99999926
_cell_angle_gamma   119.99817990
_symmetry_Int_Tables_number   1
_chemical_formula_structural   YCuO3
_chemical_formula_sum   'Y6 Cu6 O18'
_cell_volume   365.10076529
_cell_formula_units_Z   6
loop_
 _symmetry_equiv_pos_site_id
 _symmetry_equiv_pos_as_xyz
  1  'x, y, z'
loop_
 _atom_site_type_symbol
 _atom_site_label
 _atom_site_symmetry_multiplicity
 _atom_site_fract_x
 _atom_site_fract_y
 _atom_site_fract_z
 _atom_site_occupancy
  Y  Y0  1  0.66666695  0.33333433  0.23641279  1
  Y  Y1  1  0.33333344  0.66666779  0.73638924  1
  Y  Y2  1  0.66666807  0.33333538  0.73638913  1
  Y  Y3  1  0.33333400  0.66666624  0.23641266  1
  Y  Y4  1  -0.00000213  -0.00000233  0.77393516  1
  Y  Y5  1  -0.00000012  -0.00000091  0.27395972  1
  Cu  Cu6  1  0.66669130  -0.00000305  0.50144407  1
  Cu  Cu7  1  0.66669285  0.66669302  0.00145611  1
  Cu  Cu8  1  0.00000259  0.33330734  0.00145495  1
  Cu  Cu9  1  -0.00000269  0.66669139  0.50144574  1
  Cu  Cu10  1  0.33330919  0.33330887  0.50144520  1
  Cu  Cu11  1  0.33330678  0.00000268  0.00145474  1
  O  O12  1  0.66666606  0.33333564  0.01525466  1
  O  O13  1  0.33333125  0.66666767  0.51525243  1
  O  O14  1  0.66667092  0.33333914  0.51525217  1
  O  O15  1  0.33333539  0.66666443  0.01525460  1
  O  O16  1  0.99999455  0.99999450  0.98483069  1
  O  O17  1  0.00000236  0.99999986  0.48483283  1
  O  O18  1  0.35325083  0.00000183  0.83790366  1
  O  O19  1  0.35324999  0.35325000  0.33789513  1
  O  O20  1  -0.00000205  0.64674418  0.33789446  1
  O  O21  1  0.00000184  0.35325157  0.83790298  1
  O  O22  1  0.64675095  0.64675095  0.83789927  1
  O  O23  1  0.64674633  -0.00000254  0.33789447  1
  O  O24  1  0.31281575  0.00000301  0.16494800  1
  O  O25  1  0.31280846  0.31280824  0.66496064  1
  O  O26  1  -0.00000321  0.68718979  0.66496290  1
  O  O27  1  0.00000308  0.31281532  0.16494875  1
  O  O28  1  0.68719000  0.68718994  0.16495188  1
  O  O29  1  0.68718826  -0.00000328  0.66496096  1
