# generated using pymatgen
data_CsPO3
_symmetry_space_group_name_H-M   'P 1'
_cell_length_a   4.30527062
_cell_length_b   6.81260857
_cell_length_c   13.80458810
_cell_angle_alpha   66.40094052
_cell_angle_beta   90.00000000
_cell_angle_gamma   90.00000000
_symmetry_Int_Tables_number   1
_chemical_formula_structural   CsPO3
_chemical_formula_sum   'Cs4 P4 O12'
_cell_volume   371.02901781
_cell_formula_units_Z   4
loop_
 _symmetry_equiv_pos_site_id
 _symmetry_equiv_pos_as_xyz
  1  'x, y, z'
loop_
 _atom_site_type_symbol
 _atom_site_label
 _atom_site_symmetry_multiplicity
 _atom_site_fract_x
 _atom_site_fract_y
 _atom_site_fract_z
 _atom_site_occupancy
  Cs  Cs0  1  0.63158741  0.31547300  0.40958335  1
  Cs  Cs1  1  0.36841259  0.68452700  0.59041665  1
  Cs  Cs2  1  0.13158741  0.68452700  0.09041665  1
  Cs  Cs3  1  0.86841259  0.31547300  0.90958335  1
  P  P4  1  0.99234364  0.86806117  0.31758039  1
  P  P5  1  0.00765636  0.13193883  0.68241961  1
  P  P6  1  0.49234364  0.13193883  0.18241961  1
  P  P7  1  0.50765636  0.86806117  0.81758039  1
  O  O8  1  0.63564069  0.33222200  0.17995576  1
  O  O9  1  0.36435931  0.66777800  0.82004424  1
  O  O10  1  0.13564069  0.66777800  0.32004424  1
  O  O11  1  0.86435931  0.33222200  0.67995576  1
  O  O12  1  0.74270302  0.93946860  0.22218439  1
  O  O13  1  0.25729698  0.06053140  0.77781561  1
  O  O14  1  0.24270302  0.06053140  0.27781561  1
  O  O15  1  0.75729698  0.93946860  0.72218439  1
  O  O16  1  0.84865849  0.87273345  0.41434127  1
  O  O17  1  0.15134151  0.12726655  0.58565873  1
  O  O18  1  0.34865849  0.12726655  0.08565873  1
  O  O19  1  0.65134151  0.87273345  0.91434127  1
