# generated using pymatgen
data_SrCrO3
_symmetry_space_group_name_H-M   'P 1'
_cell_length_a   5.55537468
_cell_length_b   5.55537468
_cell_length_c   13.68560700
_cell_angle_alpha   90.00000000
_cell_angle_beta   90.00000000
_cell_angle_gamma   120.28367077
_symmetry_Int_Tables_number   1
_chemical_formula_structural   SrCrO3
_chemical_formula_sum   'Sr6 Cr6 O18'
_cell_volume   364.73117382
_cell_formula_units_Z   6
loop_
 _symmetry_equiv_pos_site_id
 _symmetry_equiv_pos_as_xyz
  1  'x, y, z'
loop_
 _atom_site_type_symbol
 _atom_site_label
 _atom_site_symmetry_multiplicity
 _atom_site_fract_x
 _atom_site_fract_y
 _atom_site_fract_z
 _atom_site_occupancy
  Sr  Sr0  1  0.66653500  0.33270300  0.90701100  1
  Sr  Sr1  1  0.00333100  0.00313600  0.75000000  1
  Sr  Sr2  1  0.00313600  0.00333100  0.25000000  1
  Sr  Sr3  1  0.66653500  0.33270300  0.59298900  1
  Sr  Sr4  1  0.33270300  0.66653500  0.40701100  1
  Sr  Sr5  1  0.33270300  0.66653500  0.09298900  1
  Cr  Cr6  1  0.67630600  0.33913300  0.15508700  1
  Cr  Cr7  1  0.00529600  0.00529600  0.00000000  1
  Cr  Cr8  1  0.00529600  0.00529600  0.50000000  1
  Cr  Cr9  1  0.67630600  0.33913300  0.34491300  1
  Cr  Cr10  1  0.33913300  0.67630600  0.84491300  1
  Cr  Cr11  1  0.33913300  0.67630600  0.65508700  1
  O  O12  1  0.31922500  0.15896500  0.41890600  1
  O  O13  1  0.31922500  0.15896500  0.08109400  1
  O  O14  1  0.51285000  0.03015500  0.25000000  1
  O  O15  1  0.82516500  0.16386700  0.41758100  1
  O  O16  1  0.82516500  0.16386700  0.08241900  1
  O  O17  1  0.51395200  0.48533400  0.25000000  1
  O  O18  1  0.98495400  0.49416200  0.25000000  1
  O  O19  1  0.82842000  0.66722900  0.41858800  1
  O  O20  1  0.82842000  0.66722900  0.08141200  1
  O  O21  1  0.15896500  0.31922500  0.91890600  1
  O  O22  1  0.15896500  0.31922500  0.58109400  1
  O  O23  1  0.03015500  0.51285000  0.75000000  1
  O  O24  1  0.48533400  0.51395200  0.75000000  1
  O  O25  1  0.16386700  0.82516500  0.91758100  1
  O  O26  1  0.16386700  0.82516500  0.58241900  1
  O  O27  1  0.49416200  0.98495400  0.75000000  1
  O  O28  1  0.66722900  0.82842000  0.58141200  1
  O  O29  1  0.66722900  0.82842000  0.91858800  1
