# generated using pymatgen
data_SrCrO3
_symmetry_space_group_name_H-M   'P 1'
_cell_length_a   5.55380746
_cell_length_b   5.55380746
_cell_length_c   32.27837400
_cell_angle_alpha   90.00000000
_cell_angle_beta   90.00000000
_cell_angle_gamma   119.99977918
_symmetry_Int_Tables_number   1
_chemical_formula_structural   SrCrO3
_chemical_formula_sum   'Sr14 Cr14 O42'
_cell_volume   862.23348929
_cell_formula_units_Z   14
loop_
 _symmetry_equiv_pos_site_id
 _symmetry_equiv_pos_as_xyz
  1  'x, y, z'
loop_
 _atom_site_type_symbol
 _atom_site_label
 _atom_site_symmetry_multiplicity
 _atom_site_fract_x
 _atom_site_fract_y
 _atom_site_fract_z
 _atom_site_occupancy
  Sr  Sr0  1  0.33394500  0.66477200  0.54024500  1
  Sr  Sr1  1  0.33224000  0.66450500  0.67732400  1
  Sr  Sr2  1  0.33393500  0.66260800  0.25000000  1
  Sr  Sr3  1  0.00328000  0.99934100  0.60551600  1
  Sr  Sr4  1  0.00328000  0.99934100  0.89448400  1
  Sr  Sr5  1  0.99934100  0.00328000  0.10551600  1
  Sr  Sr6  1  0.33224000  0.66450500  0.82267600  1
  Sr  Sr7  1  0.33394500  0.66477200  0.95975500  1
  Sr  Sr8  1  0.99934100  0.00328000  0.39448400  1
  Sr  Sr9  1  0.66260800  0.33393500  0.75000000  1
  Sr  Sr10  1  0.66477200  0.33394500  0.04024500  1
  Sr  Sr11  1  0.66450500  0.33224000  0.17732500  1
  Sr  Sr12  1  0.66450500  0.33224000  0.32267600  1
  Sr  Sr13  1  0.66477200  0.33394500  0.45975500  1
  Cr  Cr14  1  0.33763800  0.67617900  0.06584400  1
  Cr  Cr15  1  0.33899800  0.67511400  0.14543500  1
  Cr  Cr16  1  0.00461800  0.00461800  0.50000000  1
  Cr  Cr17  1  0.99491900  0.99194800  0.71054900  1
  Cr  Cr18  1  0.99491900  0.99194800  0.78945100  1
  Cr  Cr19  1  0.00461800  0.00461800  0.00000000  1
  Cr  Cr20  1  0.99194800  0.99491900  0.21054900  1
  Cr  Cr21  1  0.99194800  0.99491900  0.28945100  1
  Cr  Cr22  1  0.33899800  0.67511400  0.35456500  1
  Cr  Cr23  1  0.33763800  0.67617900  0.43415600  1
  Cr  Cr24  1  0.67617900  0.33763800  0.56584400  1
  Cr  Cr25  1  0.67511400  0.33899800  0.64543500  1
  Cr  Cr26  1  0.67511400  0.33899800  0.85456500  1
  Cr  Cr27  1  0.67617900  0.33763800  0.93415600  1
  O  O28  1  0.69087800  0.84629300  0.75000000  1
  O  O29  1  0.66017400  0.82542900  0.17734100  1
  O  O30  1  0.66017400  0.82542900  0.32265900  1
  O  O31  1  0.66731200  0.82442100  0.03458700  1
  O  O32  1  0.66731200  0.82442100  0.46541300  1
  O  O33  1  0.48440100  0.51458300  0.10632500  1
  O  O34  1  0.48440100  0.51458300  0.39367500  1
  O  O35  1  0.16275000  0.32711400  0.32163100  1
  O  O36  1  0.14869600  0.30240300  0.75000000  1
  O  O37  1  0.15723800  0.31450000  0.03480600  1
  O  O38  1  0.49279800  0.98496300  0.10562000  1
  O  O39  1  0.49279800  0.98496300  0.39438000  1
  O  O40  1  0.15723800  0.31450000  0.46519400  1
  O  O41  1  0.16275000  0.32711400  0.17836900  1
  O  O42  1  0.03061900  0.51592900  0.10604400  1
  O  O43  1  0.03061900  0.51592900  0.39395600  1
  O  O44  1  0.84544800  0.15026900  0.25000000  1
  O  O45  1  0.16250100  0.82127900  0.03403600  1
  O  O46  1  0.16250100  0.82127900  0.46596400  1
  O  O47  1  0.83747600  0.17147400  0.67812800  1
  O  O48  1  0.83747600  0.17147400  0.82187200  1
  O  O49  1  0.17147400  0.83747600  0.17812800  1
  O  O50  1  0.17147400  0.83747600  0.32187200  1
  O  O51  1  0.82127900  0.16250100  0.53403600  1
  O  O52  1  0.82127900  0.16250100  0.96596400  1
  O  O53  1  0.15026900  0.84544800  0.75000000  1
  O  O54  1  0.98496300  0.49279800  0.60562000  1
  O  O55  1  0.98496300  0.49279800  0.89438000  1
  O  O56  1  0.84629300  0.69087800  0.25000000  1
  O  O57  1  0.82442100  0.66731200  0.53458700  1
  O  O58  1  0.82442100  0.66731200  0.96541300  1
  O  O59  1  0.51592900  0.03061900  0.60604400  1
  O  O60  1  0.51592900  0.03061900  0.89395600  1
  O  O61  1  0.82542900  0.66017400  0.67734100  1
  O  O62  1  0.82542900  0.66017400  0.82265900  1
  O  O63  1  0.51458300  0.48440100  0.60632500  1
  O  O64  1  0.51458300  0.48440100  0.89367500  1
  O  O65  1  0.31450000  0.15723800  0.53480600  1
  O  O66  1  0.31450000  0.15723800  0.96519400  1
  O  O67  1  0.32711400  0.16275000  0.67836900  1
  O  O68  1  0.32711400  0.16275000  0.82163100  1
  O  O69  1  0.30240300  0.14869600  0.25000000  1
