# generated using pymatgen
data_HNO3
_symmetry_space_group_name_H-M   'P 1'
_cell_length_a   7.42450196
_cell_length_b   8.38487734
_cell_length_c   8.00376123
_cell_angle_alpha   90.00000000
_cell_angle_beta   122.24962672
_cell_angle_gamma   90.00000000
_symmetry_Int_Tables_number   1
_chemical_formula_structural   HNO3
_chemical_formula_sum   'H8 N8 O24'
_cell_volume   421.39615371
_cell_formula_units_Z   8
loop_
 _symmetry_equiv_pos_site_id
 _symmetry_equiv_pos_as_xyz
  1  'x, y, z'
loop_
 _atom_site_type_symbol
 _atom_site_label
 _atom_site_symmetry_multiplicity
 _atom_site_fract_x
 _atom_site_fract_y
 _atom_site_fract_z
 _atom_site_occupancy
  H  H0  1  0.02541517  0.54097628  0.75360789  1
  H  H1  1  0.02541517  0.95902372  0.25360789  1
  H  H2  1  0.97458483  0.45902372  0.24639211  1
  H  H3  1  0.97458483  0.04097628  0.74639211  1
  H  H4  1  0.49266359  0.80182639  0.71956016  1
  H  H5  1  0.49266359  0.69817361  0.21956016  1
  H  H6  1  0.50733641  0.19817361  0.28043984  1
  H  H7  1  0.50733641  0.30182639  0.78043984  1
  N  N8  1  0.01537071  0.76655256  0.74186666  1
  N  N9  1  0.01537071  0.73344744  0.24186666  1
  N  N10  1  0.98462929  0.23344744  0.25813334  1
  N  N11  1  0.98462929  0.26655256  0.75813334  1
  N  N12  1  0.48691875  0.57660666  0.72830063  1
  N  N13  1  0.48691875  0.92339334  0.22830063  1
  N  N14  1  0.51308125  0.42339334  0.27169937  1
  N  N15  1  0.51308125  0.07660666  0.77169937  1
  O  O16  1  0.88782529  0.76119184  0.79283361  1
  O  O17  1  0.88782529  0.73880816  0.29283361  1
  O  O18  1  0.11217471  0.23880816  0.20716639  1
  O  O19  1  0.11217471  0.26119184  0.70716639  1
  O  O20  1  0.08295231  0.88756025  0.70556316  1
  O  O21  1  0.08295231  0.61243975  0.20556316  1
  O  O22  1  0.91704769  0.11243975  0.29443684  1
  O  O23  1  0.91704769  0.38756025  0.79443684  1
  O  O24  1  0.09571456  0.62889932  0.72155436  1
  O  O25  1  0.09571456  0.87110068  0.22155436  1
  O  O26  1  0.90428544  0.37110068  0.27844564  1
  O  O27  1  0.90428544  0.12889932  0.77844564  1
  O  O28  1  0.61093094  0.58486171  0.90604190  1
  O  O29  1  0.61093094  0.91513829  0.40604190  1
  O  O30  1  0.38906906  0.41513829  0.09395810  1
  O  O31  1  0.38906906  0.08486171  0.59395810  1
  O  O32  1  0.40933601  0.45383702  0.63033117  1
  O  O33  1  0.40933601  0.04616298  0.13033117  1
  O  O34  1  0.59066399  0.54616298  0.36966883  1
  O  O35  1  0.59066399  0.95383702  0.86966883  1
  O  O36  1  0.42258732  0.71177084  0.62105961  1
  O  O37  1  0.42258732  0.78822916  0.12105961  1
  O  O38  1  0.57741268  0.28822916  0.37894039  1
  O  O39  1  0.57741268  0.21177084  0.87894039  1
