# generated using pymatgen
data_LuVO3
_symmetry_space_group_name_H-M   'P 1'
_cell_length_a   5.15987212
_cell_length_b   5.55083209
_cell_length_c   7.51450894
_cell_angle_alpha   89.76483976
_cell_angle_beta   89.52293324
_cell_angle_gamma   89.24997297
_symmetry_Int_Tables_number   1
_chemical_formula_structural   LuVO3
_chemical_formula_sum   'Lu4 V4 O12'
_cell_volume   215.19981862
_cell_formula_units_Z   4
loop_
 _symmetry_equiv_pos_site_id
 _symmetry_equiv_pos_as_xyz
  1  'x, y, z'
loop_
 _atom_site_type_symbol
 _atom_site_label
 _atom_site_symmetry_multiplicity
 _atom_site_fract_x
 _atom_site_fract_y
 _atom_site_fract_z
 _atom_site_occupancy
  Lu  Lu0  1  0.02551851  0.92723320  0.75249998  1
  Lu  Lu1  1  0.48197766  0.42813003  0.75074476  1
  Lu  Lu2  1  0.51801160  0.57186368  0.24925405  1
  Lu  Lu3  1  0.97447442  0.07277157  0.24749896  1
  V  V4  1  0.00000050  0.50000270  0.50000160  1
  V  V5  1  -0.00000089  0.50000291  -0.00000240  1
  V  V6  1  0.50000165  -0.00000152  0.50000010  1
  V  V7  1  0.49999968  -0.00000298  0.00000039  1
  O  O8  1  0.12295839  0.44908919  0.24989593  1
  O  O9  1  0.18862898  0.18667270  0.93600876  1
  O  O10  1  0.18684447  0.19421911  0.56234082  1
  O  O11  1  0.31197580  0.68606276  0.93824292  1
  O  O12  1  0.31682056  0.69708496  0.56611435  1
  O  O13  1  0.36851080  0.94669835  0.24735859  1
  O  O14  1  0.63149317  0.05330231  0.75264121  1
  O  O15  1  0.68317859  0.30291613  0.43388406  1
  O  O16  1  0.68802713  0.31393420  0.06176127  1
  O  O17  1  0.81316176  0.80578755  0.43766643  1
  O  O18  1  0.81137648  0.81332970  0.06398501  1
  O  O19  1  0.87704276  0.55090646  0.75010423  1
