# generated using pymatgen
data_KNO3
_symmetry_space_group_name_H-M   'P 1'
_cell_length_a   5.33194929
_cell_length_b   4.63150973
_cell_length_c   6.87477861
_cell_angle_alpha   66.35765161
_cell_angle_beta   90.00000000
_cell_angle_gamma   90.00000000
_symmetry_Int_Tables_number   1
_chemical_formula_structural   KNO3
_chemical_formula_sum   'K2 N2 O6'
_cell_volume   155.52289971
_cell_formula_units_Z   2
loop_
 _symmetry_equiv_pos_site_id
 _symmetry_equiv_pos_as_xyz
  1  'x, y, z'
loop_
 _atom_site_type_symbol
 _atom_site_label
 _atom_site_symmetry_multiplicity
 _atom_site_fract_x
 _atom_site_fract_y
 _atom_site_fract_z
 _atom_site_occupancy
  K  K0  1  0.25000000  0.17670121  0.23206694  1
  K  K1  1  0.75000000  0.82329879  0.76793306  1
  N  N2  1  0.25000000  0.23239958  0.75840512  1
  N  N3  1  0.75000000  0.76760042  0.24159488  1
  O  O4  1  0.95492179  0.68719282  0.18683817  1
  O  O5  1  0.54507821  0.68719282  0.18683817  1
  O  O6  1  0.75000000  0.93686542  0.34695766  1
  O  O7  1  0.25000000  0.06313458  0.65304234  1
  O  O8  1  0.04507821  0.31280718  0.81316183  1
  O  O9  1  0.45492179  0.31280718  0.81316183  1
