# generated using pymatgen
data_NaNO3
_symmetry_space_group_name_H-M   'P 1'
_cell_length_a   5.06347124
_cell_length_b   6.14151269
_cell_length_c   17.15083790
_cell_angle_alpha   83.41298689
_cell_angle_beta   81.51764738
_cell_angle_gamma   65.65701800
_symmetry_Int_Tables_number   1
_chemical_formula_structural   NaNO3
_chemical_formula_sum   'Na8 N8 O24'
_cell_volume   479.75224000
_cell_formula_units_Z   8
loop_
 _symmetry_equiv_pos_site_id
 _symmetry_equiv_pos_as_xyz
  1  'x, y, z'
loop_
 _atom_site_type_symbol
 _atom_site_label
 _atom_site_symmetry_multiplicity
 _atom_site_fract_x
 _atom_site_fract_y
 _atom_site_fract_z
 _atom_site_occupancy
  Na  Na0  1  0.00426693  0.00279237  0.99926170  1
  Na  Na1  1  0.24999563  0.37899446  0.12341438  1
  Na  Na2  1  0.50017161  0.75085543  0.24783037  1
  Na  Na3  1  0.75133190  0.12382466  0.37320097  1
  Na  Na4  1  0.00421103  0.49731515  0.49769254  1
  Na  Na5  1  0.25606107  0.87182462  0.62323569  1
  Na  Na6  1  0.50899490  0.24653448  0.74792092  1
  Na  Na7  1  0.75889964  0.62290109  0.87317582  1
  N  N8  1  0.62229275  0.69796105  0.06096402  1
  N  N9  1  0.12616388  0.43844291  0.31098005  1
  N  N10  1  0.86976381  0.07044871  0.18635184  1
  N  N11  1  0.62939434  0.18611232  0.56085600  1
  N  N12  1  0.37807991  0.81114448  0.43580174  1
  N  N13  1  0.13324021  0.93516735  0.81136031  1
  N  N14  1  0.88135040  0.56029075  0.68572299  1
  N  N15  1  0.38160947  0.31595799  0.93644164  1
  O  O16  1  0.48824476  0.63960327  0.12182616  1
  O  O17  1  0.87076090  0.69492799  0.06374797  1
  O  O18  1  0.50700561  0.76047174  0.99739307  1
  O  O19  1  0.00297665  0.37330991  0.37271643  1
  O  O20  1  0.00176384  0.50255002  0.24889201  1
  O  O21  1  0.37399282  0.43953864  0.31141293  1
  O  O22  1  0.62139454  0.06874311  0.18781086  1
  O  O23  1  0.00071351  0.00477966  0.24732449  1
  O  O24  1  0.98652933  0.13850941  0.12394489  1
  O  O25  1  0.50415076  0.12410067  0.62280557  1
  O  O26  1  0.50601351  0.24853169  0.49857398  1
  O  O27  1  0.87787651  0.18590067  0.56123585  1
  O  O28  1  0.12881567  0.81221947  0.43618965  1
  O  O29  1  0.50342158  0.74875473  0.49777889  1
  O  O30  1  0.50211514  0.87250494  0.37347511  1
  O  O31  1  0.00920153  0.87359361  0.87365947  1
  O  O32  1  0.00915067  0.99574789  0.74918723  1
  O  O33  1  0.38131911  0.93615768  0.81123856  1
  O  O34  1  0.63252817  0.56029106  0.68619826  1
  O  O35  1  0.00736911  0.49760053  0.74757759  1
  O  O36  1  0.00390837  0.62312369  0.62340261  1
  O  O37  1  0.13280357  0.31530370  0.93767815  1
  O  O38  1  0.50660841  0.25956424  0.99844703  1
  O  O39  1  0.50535444  0.37352886  0.87334729  1
