# generated using pymatgen
data_NaClO3
_symmetry_space_group_name_H-M   'P 1'
_cell_length_a   6.49889796
_cell_length_b   6.49889796
_cell_length_c   6.49889796
_cell_angle_alpha   90.00000000
_cell_angle_beta   90.00000000
_cell_angle_gamma   90.00000000
_symmetry_Int_Tables_number   1
_chemical_formula_structural   NaClO3
_chemical_formula_sum   'Na4 Cl4 O12'
_cell_volume   274.48534011
_cell_formula_units_Z   4
loop_
 _symmetry_equiv_pos_site_id
 _symmetry_equiv_pos_as_xyz
  1  'x, y, z'
loop_
 _atom_site_type_symbol
 _atom_site_label
 _atom_site_symmetry_multiplicity
 _atom_site_fract_x
 _atom_site_fract_y
 _atom_site_fract_z
 _atom_site_occupancy
  Na  Na0  1  0.06747873  0.06747873  0.06747873  1
  Na  Na1  1  0.43252127  0.93252127  0.56747873  1
  Na  Na2  1  0.56747873  0.43252127  0.93252127  1
  Na  Na3  1  0.93252127  0.56747873  0.43252127  1
  Cl  Cl4  1  0.41619054  0.41619054  0.41619054  1
  Cl  Cl5  1  0.08380946  0.58380946  0.91619054  1
  Cl  Cl6  1  0.91619054  0.08380946  0.58380946  1
  Cl  Cl7  1  0.58380946  0.91619054  0.08380946  1
  O  O8  1  0.19878105  0.40500765  0.00271405  1
  O  O9  1  0.69878105  0.09499235  0.99728595  1
  O  O10  1  0.80121895  0.90500765  0.49728595  1
  O  O11  1  0.09499235  0.99728595  0.69878105  1
  O  O12  1  0.49728595  0.80121895  0.90500765  1
  O  O13  1  0.99728595  0.69878105  0.09499235  1
  O  O14  1  0.40500765  0.00271405  0.19878105  1
  O  O15  1  0.00271405  0.19878105  0.40500765  1
  O  O16  1  0.30121895  0.59499235  0.50271405  1
  O  O17  1  0.50271405  0.30121895  0.59499235  1
  O  O18  1  0.59499235  0.50271405  0.30121895  1
  O  O19  1  0.90500765  0.49728595  0.80121895  1
