# generated using pymatgen
data_NbOF3
_symmetry_space_group_name_H-M   'P 1'
_cell_length_a   6.16530164
_cell_length_b   7.70425026
_cell_length_c   8.77070128
_cell_angle_alpha   101.29660586
_cell_angle_beta   105.46339264
_cell_angle_gamma   112.82425173
_symmetry_Int_Tables_number   1
_chemical_formula_structural   NbOF3
_chemical_formula_sum   'Nb4 O4 F12'
_cell_volume   348.44035981
_cell_formula_units_Z   4
loop_
 _symmetry_equiv_pos_site_id
 _symmetry_equiv_pos_as_xyz
  1  'x, y, z'
loop_
 _atom_site_type_symbol
 _atom_site_label
 _atom_site_symmetry_multiplicity
 _atom_site_fract_x
 _atom_site_fract_y
 _atom_site_fract_z
 _atom_site_occupancy
  Nb  Nb0  1  0.51297145  0.53640555  0.20678766  1
  Nb  Nb1  1  0.34448112  0.09442971  0.37022511  1
  Nb  Nb2  1  0.65551888  0.90557029  0.62977489  1
  Nb  Nb3  1  0.48702855  0.46359445  0.79321234  1
  O  O4  1  0.57950701  0.72248641  0.40041972  1
  O  O5  1  0.43750196  0.29650245  0.28431712  1
  O  O6  1  0.56249804  0.70349755  0.71568288  1
  O  O7  1  0.42049299  0.27751359  0.59958028  1
  F  F8  1  0.55570589  0.68083620  0.04369169  1
  F  F9  1  0.30808241  0.88449706  0.19691227  1
  F  F10  1  0.15684778  0.42210966  0.09823989  1
  F  F11  1  0.84100624  0.55685572  0.24584348  1
  F  F12  1  0.00613731  0.99549710  0.68626027  1
  F  F13  1  0.69397687  0.11852505  0.49036591  1
  F  F14  1  0.30602313  0.88147495  0.50963409  1
  F  F15  1  -0.00613731  0.00450290  0.31373973  1
  F  F16  1  0.15899376  0.44314428  0.75415652  1
  F  F17  1  0.84315222  0.57789034  0.90176011  1
  F  F18  1  0.69191759  0.11550294  0.80308773  1
  F  F19  1  0.44429411  0.31916380  0.95630831  1
