# generated using pymatgen
data_MnInO3
_symmetry_space_group_name_H-M   'P 1'
_cell_length_a   5.96051327
_cell_length_b   5.96052317
_cell_length_c   11.56934856
_cell_angle_alpha   90.00900856
_cell_angle_beta   90.00863077
_cell_angle_gamma   58.26208348
_symmetry_Int_Tables_number   1
_chemical_formula_structural   MnInO3
_chemical_formula_sum   'Mn6 In6 O18'
_cell_volume   349.56863235
_cell_formula_units_Z   6
loop_
 _symmetry_equiv_pos_site_id
 _symmetry_equiv_pos_as_xyz
  1  'x, y, z'
loop_
 _atom_site_type_symbol
 _atom_site_label
 _atom_site_symmetry_multiplicity
 _atom_site_fract_x
 _atom_site_fract_y
 _atom_site_fract_z
 _atom_site_occupancy
  Mn  Mn0  1  0.33692152  0.66308080  0.75000587  1
  Mn  Mn1  1  0.32733046  0.00486918  0.25095335  1
  Mn  Mn2  1  0.99513125  0.67268760  0.24903606  1
  Mn  Mn3  1  0.00487993  0.32730264  0.75096123  1
  Mn  Mn4  1  0.67267902  0.99512498  0.74904900  1
  Mn  Mn5  1  0.66306216  0.33693339  0.24999205  1
  In  In6  1  -0.00000227  0.00000140  0.49998904  1
  In  In7  1  -0.00000132  0.00000307  0.00000624  1
  In  In8  1  0.66722560  0.66613281  0.01713508  1
  In  In9  1  0.66613222  0.66722175  0.51713708  1
  In  In10  1  0.33277944  0.33386725  0.98287010  1
  In  In11  1  0.33386828  0.33277370  0.48286612  1
  O  O12  1  -0.01852022  0.01851966  0.75000184  1
  O  O13  1  0.01854211  -0.01854227  0.25000350  1
  O  O14  1  0.68605315  0.64713723  0.23117250  1
  O  O15  1  0.64715147  0.68604540  0.73119167  1
  O  O16  1  0.31395750  0.35284767  0.76880603  1
  O  O17  1  0.35286255  0.31394976  0.26882328  1
  O  O18  1  0.02358480  0.32074231  0.58613057  1
  O  O19  1  0.65921363  0.02033249  0.58443086  1
  O  O20  1  0.32266707  0.65328139  0.58548476  1
  O  O21  1  0.32076995  0.02352467  0.08615629  1
  O  O22  1  0.65330223  0.32270289  0.08550488  1
  O  O23  1  0.02025773  0.65924748  0.08445466  1
  O  O24  1  0.97645793  0.67923294  0.41384462  1
  O  O25  1  0.34076319  0.97973416  0.41555104  1
  O  O26  1  0.67729331  0.34670742  0.41448870  1
  O  O27  1  0.67924174  0.97642536  0.91386609  1
  O  O28  1  0.34672068  0.67732860  0.91451729  1
  O  O29  1  0.97967291  0.34078429  0.91557122  1
