# generated using pymatgen
data_KIO3
_symmetry_space_group_name_H-M   'P 1'
_cell_length_a   7.69342131
_cell_length_b   7.69342131
_cell_length_c   8.86093071
_cell_angle_alpha   54.86698198
_cell_angle_beta   54.86698198
_cell_angle_gamma   70.54092383
_symmetry_Int_Tables_number   1
_chemical_formula_structural   KIO3
_chemical_formula_sum   'K4 I4 O12'
_cell_volume   350.77616254
_cell_formula_units_Z   4
loop_
 _symmetry_equiv_pos_site_id
 _symmetry_equiv_pos_as_xyz
  1  'x, y, z'
loop_
 _atom_site_type_symbol
 _atom_site_label
 _atom_site_symmetry_multiplicity
 _atom_site_fract_x
 _atom_site_fract_y
 _atom_site_fract_z
 _atom_site_occupancy
  K  K0  1  0.99656836  0.00343164  0.50000000  1
  K  K1  1  0.49448675  0.50551325  0.00000000  1
  K  K2  1  0.00012647  -0.00012647  0.00000000  1
  K  K3  1  0.50091280  0.49908720  0.50000000  1
  I  I4  1  0.48019594  0.98855355  0.03195008  1
  I  I5  1  0.98176563  0.48478214  0.50272352  1
  I  I6  1  0.51521786  0.01823437  0.49727648  1
  I  I7  1  0.01144645  0.51980406  0.96804992  1
  O  O8  1  0.17293809  0.75583605  0.79510239  1
  O  O9  1  0.75381945  0.17566167  0.27392615  1
  O  O10  1  0.67208919  0.77447196  0.06633022  1
  O  O11  1  0.24416395  0.82706191  0.20489761  1
  O  O12  1  0.44580131  0.05703272  0.21234974  1
  O  O13  1  0.76470000  0.67411330  0.49763505  1
  O  O14  1  0.22552804  0.32791081  0.93366978  1
  O  O15  1  0.82433833  0.24618055  0.72607385  1
  O  O16  1  0.04367050  0.45511610  0.28754088  1
  O  O17  1  0.54488390  0.95632950  0.71245912  1
  O  O18  1  0.32588670  0.23530000  0.50236495  1
  O  O19  1  0.94296728  0.55419869  0.78765026  1
