# generated using pymatgen
data_HoMnO3
_symmetry_space_group_name_H-M   'P 1'
_cell_length_a   6.13719875
_cell_length_b   6.13719875
_cell_length_c   11.40697063
_cell_angle_alpha   90.00000000
_cell_angle_beta   90.00000000
_cell_angle_gamma   120.87520052
_symmetry_Int_Tables_number   1
_chemical_formula_structural   HoMnO3
_chemical_formula_sum   'Ho6 Mn6 O18'
_cell_volume   368.75955804
_cell_formula_units_Z   6
loop_
 _symmetry_equiv_pos_site_id
 _symmetry_equiv_pos_as_xyz
  1  'x, y, z'
loop_
 _atom_site_type_symbol
 _atom_site_label
 _atom_site_symmetry_multiplicity
 _atom_site_fract_x
 _atom_site_fract_y
 _atom_site_fract_z
 _atom_site_occupancy
  Ho  Ho0  1  0.00088521  0.00088521  0.33982312  1
  Ho  Ho1  1  0.99911479  0.99911479  0.83982312  1
  Ho  Ho2  1  0.66961729  0.33606223  0.29549758  1
  Ho  Ho3  1  0.33606223  0.66961729  0.29549758  1
  Ho  Ho4  1  0.33038271  0.66393777  0.79549758  1
  Ho  Ho5  1  0.66393777  0.33038271  0.79549758  1
  Mn  Mn6  1  0.65904040  0.65904040  0.06552818  1
  Mn  Mn7  1  0.32594894  0.99214231  0.06377144  1
  Mn  Mn8  1  0.99214231  0.32594894  0.06377144  1
  Mn  Mn9  1  0.34095960  0.34095960  0.56552818  1
  Mn  Mn10  1  0.67405106  0.00785769  0.56377144  1
  Mn  Mn11  1  0.00785769  0.67405106  0.56377144  1
  O  O12  1  0.36144285  0.36144285  0.40150250  1
  O  O13  1  0.00418365  0.64324553  0.40033006  1
  O  O14  1  0.64324553  0.00418365  0.40033006  1
  O  O15  1  0.63855715  0.63855715  0.90150250  1
  O  O16  1  0.99581635  0.35675447  0.90033006  1
  O  O17  1  0.35675447  0.99581635  0.90033006  1
  O  O18  1  0.69330215  0.69330215  0.22904514  1
  O  O19  1  0.00121117  0.30691269  0.22784184  1
  O  O20  1  0.30691269  0.00121117  0.22784184  1
  O  O21  1  0.30669785  0.30669785  0.72904514  1
  O  O22  1  0.99878883  0.69308731  0.72784184  1
  O  O23  1  0.69308731  0.99878883  0.72784184  1
  O  O24  1  0.98380833  0.98380833  0.54107569  1
  O  O25  1  0.01619167  0.01619167  0.04107569  1
  O  O26  1  0.68271264  0.34907850  0.08368325  1
  O  O27  1  0.34907850  0.68271264  0.08368325  1
  O  O28  1  0.31728736  0.65092150  0.58368325  1
  O  O29  1  0.65092150  0.31728736  0.58368325  1
