# generated using pymatgen
data_CaCO3
_symmetry_space_group_name_H-M   'P 1'
_cell_length_a   4.98865714
_cell_length_b   4.98865714
_cell_length_c   8.61554745
_cell_angle_alpha   89.81573115
_cell_angle_beta   89.81573115
_cell_angle_gamma   59.97989647
_symmetry_Int_Tables_number   1
_chemical_formula_structural   CaCO3
_chemical_formula_sum   'Ca3 C3 O9'
_cell_volume   185.64780424
_cell_formula_units_Z   3
loop_
 _symmetry_equiv_pos_site_id
 _symmetry_equiv_pos_as_xyz
  1  'x, y, z'
loop_
 _atom_site_type_symbol
 _atom_site_label
 _atom_site_symmetry_multiplicity
 _atom_site_fract_x
 _atom_site_fract_y
 _atom_site_fract_z
 _atom_site_occupancy
  Ca  Ca0  1  0.34788564  0.32085894  0.33473893  1
  Ca  Ca1  1  0.01555011  0.98444989  0.00000000  1
  Ca  Ca2  1  0.67914106  0.65211436  0.66526107  1
  C  C3  1  0.68429195  0.65241164  0.17073071  1
  C  C4  1  0.34758836  0.31570805  0.82926929  1
  C  C5  1  0.01520644  0.98479356  0.50000000  1
  O  O6  1  0.60894857  0.05929952  0.83098828  1
  O  O7  1  0.09162496  0.31018822  0.82710878  1
  O  O8  1  0.34243077  0.57701495  0.83009723  1
  O  O9  1  0.42298505  0.65756923  0.16990277  1
  O  O10  1  0.01541903  0.72600209  0.50130484  1
  O  O11  1  0.27399791  0.98458097  0.49869516  1
  O  O12  1  0.68981178  0.90837504  0.17289122  1
  O  O13  1  0.94070048  0.39105143  0.16901172  1
  O  O14  1  0.75641689  0.24358311  0.50000000  1
