# generated using pymatgen
data_BaGeO3
_symmetry_space_group_name_H-M   'P 1'
_cell_length_a   9.10389422
_cell_length_b   8.58439175
_cell_length_c   9.00348119
_cell_angle_alpha   61.80671728
_cell_angle_beta   69.62638910
_cell_angle_gamma   78.32391002
_symmetry_Int_Tables_number   1
_chemical_formula_structural   BaGeO3
_chemical_formula_sum   'Ba6 Ge6 O18'
_cell_volume   580.74724113
_cell_formula_units_Z   6
loop_
 _symmetry_equiv_pos_site_id
 _symmetry_equiv_pos_as_xyz
  1  'x, y, z'
loop_
 _atom_site_type_symbol
 _atom_site_label
 _atom_site_symmetry_multiplicity
 _atom_site_fract_x
 _atom_site_fract_y
 _atom_site_fract_z
 _atom_site_occupancy
  Ba  Ba0  1  0.68353757  0.04333978  0.89670548  1
  Ba  Ba1  1  0.98008730  0.46018540  0.57943595  1
  Ba  Ba2  1  0.34734411  0.65349852  0.20590800  1
  Ba  Ba3  1  0.00136660  0.60262844  0.04551886  1
  Ba  Ba4  1  0.24423163  0.18369754  0.26239214  1
  Ba  Ba5  1  0.42481554  0.74482146  0.62322912  1
  Ge  Ge6  1  0.94464836  0.95968660  0.23819236  1
  Ge  Ge7  1  0.15466097  0.04172277  0.77353336  1
  Ge  Ge8  1  0.73228656  0.60401178  0.84379194  1
  Ge  Ge9  1  0.51470446  0.13537987  0.56074430  1
  Ge  Ge10  1  0.28978652  0.35969121  0.76058347  1
  Ge  Ge11  1  0.65067368  0.21925810  0.19357911  1
  O  O12  1  0.27778859  0.53632790  0.56054223  1
  O  O13  1  0.13757989  0.46111294  0.28416303  1
  O  O14  1  0.82646782  0.77793856  0.30168931  1
  O  O15  1  0.68727891  0.36563657  0.97006529  1
  O  O16  1  0.30926850  0.11251205  0.56788149  1
  O  O17  1  0.62974748  0.72243553  0.96538438  1
  O  O18  1  0.12018425  0.91111634  0.27696793  1
  O  O19  1  0.54727331  0.32648102  0.32938320  1
  O  O20  1  0.22322340  0.83023009  0.89472103  1
  O  O21  1  0.54662901  0.05104971  0.22615414  1
  O  O22  1  0.89283925  0.90039344  0.09355008  1
  O  O23  1  0.93379410  0.60286902  0.79549060  1
  O  O24  1  0.28179088  0.42731395  0.91676107  1
  O  O25  1  0.83993119  0.15275723  0.23941912  1
  O  O26  1  0.97812149  0.08235615  0.72467969  1
  O  O27  1  0.69011714  0.63979095  0.65546966  1
  O  O28  1  0.47169363  0.23824977  0.71299467  1
  O  O29  1  0.14173086  0.20150731  0.85486900  1
