# generated using pymatgen
data_NaNO3
_symmetry_space_group_name_H-M   'P 1'
_cell_length_a   5.05857964
_cell_length_b   6.14581159
_cell_length_c   17.14250794
_cell_angle_alpha   83.38939263
_cell_angle_beta   81.50716485
_cell_angle_gamma   65.68612531
_symmetry_Int_Tables_number   1
_chemical_formula_structural   NaNO3
_chemical_formula_sum   'Na8 N8 O24'
_cell_volume   479.47577927
_cell_formula_units_Z   8
loop_
 _symmetry_equiv_pos_site_id
 _symmetry_equiv_pos_as_xyz
  1  'x, y, z'
loop_
 _atom_site_type_symbol
 _atom_site_label
 _atom_site_symmetry_multiplicity
 _atom_site_fract_x
 _atom_site_fract_y
 _atom_site_fract_z
 _atom_site_occupancy
  Na  Na0  1  0.00050894  0.00319748  0.99877971  1
  Na  Na1  1  0.24844193  0.38152645  0.12324257  1
  Na  Na2  1  0.49904153  0.75513630  0.24794660  1
  Na  Na3  1  0.75111709  0.12632148  0.37360289  1
  Na  Na4  1  0.00666880  0.49719995  0.49777309  1
  Na  Na5  1  0.25852131  0.87068213  0.62333412  1
  Na  Na6  1  0.50750943  0.24552637  0.74899740  1
  Na  Na7  1  0.75639582  0.62362180  0.87306396  1
  N  N8  1  0.62103232  0.69694855  0.06067089  1
  N  N9  1  0.12590842  0.44133126  0.31087210  1
  N  N10  1  0.86988790  0.07179265  0.18609610  1
  N  N11  1  0.63291732  0.18415519  0.56136488  1
  N  N12  1  0.37905534  0.81197604  0.43589291  1
  N  N13  1  0.13202739  0.93473170  0.81112443  1
  N  N14  1  0.88325404  0.55837172  0.68593150  1
  N  N15  1  0.37892254  0.31458525  0.93633485  1
  O  O16  1  0.48983644  0.63902704  0.12230095  1
  O  O17  1  0.87024116  0.69451351  0.06219545  1
  O  O18  1  0.50259397  0.75787025  0.99752416  1
  O  O19  1  0.00295028  0.37573119  0.37263001  1
  O  O20  1  0.00068362  0.50648985  0.24887038  1
  O  O21  1  0.37435200  0.44181215  0.31118921  1
  O  O22  1  0.62137851  0.07021944  0.18705232  1
  O  O23  1  0.99821337  0.00846529  0.24756880  1
  O  O24  1  0.98954630  0.13721045  0.12364082  1
  O  O25  1  0.51048575  0.12011780  0.62353956  1
  O  O26  1  0.50711641  0.24682465  0.49942440  1
  O  O27  1  0.88118752  0.18540804  0.56111476  1
  O  O28  1  0.12946997  0.81320437  0.43618722  1
  O  O29  1  0.50501246  0.74798676  0.49780126  1
  O  O30  1  0.50274072  0.87472121  0.37369104  1
  O  O31  1  0.00688679  0.87374086  0.87339238  1
  O  O32  1  0.00824844  0.99607202  0.74885889  1
  O  O33  1  0.38096481  0.93439231  0.81112529  1
  O  O34  1  0.63430159  0.55838963  0.68625202  1
  O  O35  1  0.00810937  0.49685948  0.74804120  1
  O  O36  1  0.00731942  0.61994670  0.62358875  1
  O  O37  1  0.13036433  0.31410235  0.93643591  1
  O  O38  1  0.50151821  0.25657783  0.99879692  1
  O  O39  1  0.50511742  0.37313452  0.87382632  1
