# generated using pymatgen
data_BaUO3
_symmetry_space_group_name_H-M   'P 1'
_cell_length_a   6.23957993
_cell_length_b   6.26455201
_cell_length_c   8.80358892
_cell_angle_alpha   89.99981005
_cell_angle_beta   89.99955897
_cell_angle_gamma   89.99814566
_symmetry_Int_Tables_number   1
_chemical_formula_structural   BaUO3
_chemical_formula_sum   'Ba4 U4 O12'
_cell_volume   344.11620658
_cell_formula_units_Z   4
loop_
 _symmetry_equiv_pos_site_id
 _symmetry_equiv_pos_as_xyz
  1  'x, y, z'
loop_
 _atom_site_type_symbol
 _atom_site_label
 _atom_site_symmetry_multiplicity
 _atom_site_fract_x
 _atom_site_fract_y
 _atom_site_fract_z
 _atom_site_occupancy
  Ba  Ba0  1  0.01634699  0.99302697  0.74995668  1
  Ba  Ba1  1  0.48365913  0.49301905  0.25004220  1
  Ba  Ba2  1  0.51634107  0.50698095  0.74995758  1
  Ba  Ba3  1  0.98365347  0.00697321  0.25004342  1
  U  U4  1  -0.00000026  0.49999982  0.00000005  1
  U  U5  1  0.00000025  0.50000018  0.49999993  1
  U  U6  1  0.49999996  0.00000031  0.50000037  1
  U  U7  1  0.50000025  0.00000006  0.00000001  1
  O  O8  1  0.22988010  0.23585474  0.04100891  1
  O  O9  1  0.51196208  0.92542178  0.25003171  1
  O  O10  1  0.72989758  0.26413555  0.45898618  1
  O  O11  1  0.72987995  0.26414331  0.04100713  1
  O  O12  1  0.77011797  0.76412646  0.54101178  1
  O  O13  1  0.01196403  0.57457929  0.25003784  1
  O  O14  1  0.22988224  0.23587345  0.45898859  1
  O  O15  1  0.27011998  0.73585666  0.95899297  1
  O  O16  1  0.27010259  0.73586500  0.54101401  1
  O  O17  1  0.48803762  0.07457858  0.74996849  1
  O  O18  1  0.77011956  0.76414513  0.95899124  1
  O  O19  1  0.98803643  0.42542050  0.74996191  1
