# generated using pymatgen
data_NaPO3
_symmetry_space_group_name_H-M   'P 1'
_cell_length_a   6.14007416
_cell_length_b   6.91511782
_cell_length_c   13.67600088
_cell_angle_alpha   61.59664818
_cell_angle_beta   90.00000000
_cell_angle_gamma   90.00000000
_symmetry_Int_Tables_number   1
_chemical_formula_structural   NaPO3
_chemical_formula_sum   'Na8 P8 O24'
_cell_volume   510.77282741
_cell_formula_units_Z   8
loop_
 _symmetry_equiv_pos_site_id
 _symmetry_equiv_pos_as_xyz
  1  'x, y, z'
loop_
 _atom_site_type_symbol
 _atom_site_label
 _atom_site_symmetry_multiplicity
 _atom_site_fract_x
 _atom_site_fract_y
 _atom_site_fract_z
 _atom_site_occupancy
  Na  Na0  1  0.62889002  0.50175369  0.62925170  1
  Na  Na1  1  0.12889002  0.49824631  0.87074830  1
  Na  Na2  1  0.37110998  0.49824631  0.37074830  1
  Na  Na3  1  0.87110998  0.50175369  0.12925170  1
  Na  Na4  1  0.12034969  0.75465345  0.50717005  1
  Na  Na5  1  0.62034969  0.24534655  0.99282995  1
  Na  Na6  1  0.87965031  0.24534655  0.49282995  1
  Na  Na7  1  0.37965031  0.75465345  0.00717005  1
  P  P8  1  0.13551144  0.27832010  0.71505414  1
  P  P9  1  0.63551144  0.72167990  0.78494586  1
  P  P10  1  0.86448856  0.72167990  0.28494586  1
  P  P11  1  0.36448856  0.27832010  0.21505414  1
  P  P12  1  0.37390949  0.07272585  0.60889929  1
  P  P13  1  0.87390949  0.92727415  0.89110071  1
  P  P14  1  0.62609051  0.92727415  0.39110071  1
  P  P15  1  0.12609051  0.07272585  0.10889929  1
  O  O16  1  0.97398269  0.26247124  0.05509765  1
  O  O17  1  0.47398269  0.73752876  0.44490235  1
  O  O18  1  0.02601731  0.73752876  0.94490235  1
  O  O19  1  0.52601731  0.26247124  0.55509765  1
  O  O20  1  0.29438242  0.04733556  0.03832230  1
  O  O21  1  0.79438242  0.95266444  0.46167770  1
  O  O22  1  0.70561758  0.95266444  0.96167770  1
  O  O23  1  0.20561758  0.04733556  0.53832230  1
  O  O24  1  0.99300778  0.84778522  0.16990609  1
  O  O25  1  0.49300778  0.15221478  0.33009391  1
  O  O26  1  0.00699222  0.15221478  0.83009391  1
  O  O27  1  0.50699222  0.84778522  0.66990609  1
  O  O28  1  0.51850566  0.37519467  0.11967667  1
  O  O29  1  0.01850566  0.62480533  0.38032333  1
  O  O30  1  0.48149434  0.62480533  0.88032333  1
  O  O31  1  0.98149434  0.37519467  0.61967667  1
  O  O32  1  0.29262777  0.42810062  0.72767349  1
  O  O33  1  0.79262777  0.57189938  0.77232651  1
  O  O34  1  0.70737223  0.57189938  0.27232651  1
  O  O35  1  0.20737223  0.42810062  0.22767349  1
  O  O36  1  0.26222484  0.07426729  0.71518366  1
  O  O37  1  0.76222484  0.92573271  0.78481634  1
  O  O38  1  0.73777516  0.92573271  0.28481634  1
  O  O39  1  0.23777516  0.07426729  0.21518366  1
