# generated using pymatgen
data_RbPO3
_symmetry_space_group_name_H-M   'P 1'
_cell_length_a   4.60648002
_cell_length_b   11.86328964
_cell_length_c   14.51769467
_cell_angle_alpha   63.62141224
_cell_angle_beta   90.00000000
_cell_angle_gamma   90.00000000
_symmetry_Int_Tables_number   1
_chemical_formula_structural   RbPO3
_chemical_formula_sum   'Rb8 P8 O24'
_cell_volume   710.75641794
_cell_formula_units_Z   8
loop_
 _symmetry_equiv_pos_site_id
 _symmetry_equiv_pos_as_xyz
  1  'x, y, z'
loop_
 _atom_site_type_symbol
 _atom_site_label
 _atom_site_symmetry_multiplicity
 _atom_site_fract_x
 _atom_site_fract_y
 _atom_site_fract_z
 _atom_site_occupancy
  Rb  Rb0  1  0.20782822  0.56718163  0.63462186  1
  Rb  Rb1  1  0.73827919  0.90004747  0.92851315  1
  Rb  Rb2  1  0.26172081  0.09995253  0.07148685  1
  Rb  Rb3  1  0.79217178  0.43281837  0.36537814  1
  Rb  Rb4  1  0.23827919  0.09995253  0.57148685  1
  Rb  Rb5  1  0.29217178  0.56718163  0.13462186  1
  Rb  Rb6  1  0.76172081  0.90004747  0.42851315  1
  Rb  Rb7  1  0.70782822  0.43281837  0.86537814  1
  P  P8  1  0.31550562  0.19425142  0.30768686  1
  P  P9  1  0.18661109  0.71744472  0.83363601  1
  P  P10  1  0.18449438  0.19425142  0.80768686  1
  P  P11  1  0.81338891  0.28255528  0.16636399  1
  P  P12  1  0.68449438  0.80574858  0.69231314  1
  P  P13  1  0.31338891  0.71744472  0.33363601  1
  P  P14  1  0.68661109  0.28255528  0.66636399  1
  P  P15  1  0.81550562  0.80574858  0.19231314  1
  O  O16  1  0.75222545  0.25678465  0.57755170  1
  O  O17  1  0.74777455  0.25678465  0.07755170  1
  O  O18  1  0.79548837  0.69989769  0.16426100  1
  O  O19  1  0.70451163  0.69989769  0.66426100  1
  O  O20  1  0.20451163  0.30010231  0.83573900  1
  O  O21  1  0.28802031  0.58869889  0.34206327  1
  O  O22  1  0.75462466  0.93501308  0.61398670  1
  O  O23  1  0.78802031  0.41130111  0.15793673  1
  O  O24  1  0.86474410  0.77277089  0.79672258  1
  O  O25  1  0.71197969  0.41130111  0.65793673  1
  O  O26  1  0.36565185  0.81525866  0.73377335  1
  O  O27  1  0.86565185  0.18474134  0.76622665  1
  O  O28  1  0.63434815  0.18474134  0.26622665  1
  O  O29  1  0.13525590  0.22722911  0.20327742  1
  O  O30  1  0.21197969  0.58869889  0.84206327  1
  O  O31  1  0.24777455  0.74321535  0.42244830  1
  O  O32  1  0.63525590  0.77277089  0.29672258  1
  O  O33  1  0.74537534  0.93501308  0.11398670  1
  O  O34  1  0.29548837  0.30010231  0.33573900  1
  O  O35  1  0.13434815  0.81525866  0.23377335  1
  O  O36  1  0.25462466  0.06498692  0.88601330  1
  O  O37  1  0.24537534  0.06498692  0.38601330  1
  O  O38  1  0.36474410  0.22722911  0.70327742  1
  O  O39  1  0.25222545  0.74321535  0.92244830  1
