# generated using pymatgen
data_ErAlO3
_symmetry_space_group_name_H-M   'P 1'
_cell_length_a   5.11890551
_cell_length_b   5.31641715
_cell_length_c   7.32664956
_cell_angle_alpha   90.00000000
_cell_angle_beta   90.00000000
_cell_angle_gamma   90.00000000
_symmetry_Int_Tables_number   1
_chemical_formula_structural   ErAlO3
_chemical_formula_sum   'Er4 Al4 O12'
_cell_volume   199.38917785
_cell_formula_units_Z   4
loop_
 _symmetry_equiv_pos_site_id
 _symmetry_equiv_pos_as_xyz
  1  'x, y, z'
loop_
 _atom_site_type_symbol
 _atom_site_label
 _atom_site_symmetry_multiplicity
 _atom_site_fract_x
 _atom_site_fract_y
 _atom_site_fract_z
 _atom_site_occupancy
  Er  Er0  1  0.01448750  0.94133861  0.75000000  1
  Er  Er1  1  0.48551250  0.44133861  0.75000000  1
  Er  Er2  1  0.51448750  0.55866139  0.25000000  1
  Er  Er3  1  0.98551250  0.05866139  0.25000000  1
  Al  Al4  1  -0.00000000  0.50000000  0.00000000  1
  Al  Al5  1  -0.00000000  0.50000000  0.50000000  1
  Al  Al6  1  0.50000000  0.00000000  0.00000000  1
  Al  Al7  1  0.50000000  0.00000000  0.50000000  1
  O  O8  1  0.09156526  0.47432961  0.25000000  1
  O  O9  1  0.20267311  0.20380367  0.54789866  1
  O  O10  1  0.20267311  0.20380367  0.95210134  1
  O  O11  1  0.29732689  0.70380367  0.95210134  1
  O  O12  1  0.29732689  0.70380367  0.54789866  1
  O  O13  1  0.40843474  0.97432961  0.25000000  1
  O  O14  1  0.59156526  0.02567039  0.75000000  1
  O  O15  1  0.70267311  0.29619633  0.04789866  1
  O  O16  1  0.70267311  0.29619633  0.45210134  1
  O  O17  1  0.79732689  0.79619633  0.04789866  1
  O  O18  1  0.79732689  0.79619633  0.45210134  1
  O  O19  1  0.90843474  0.52567039  0.75000000  1
