# generated using pymatgen
data_TmAlO3
_symmetry_space_group_name_H-M   'P 1'
_cell_length_a   5.09801477
_cell_length_b   5.31393680
_cell_length_c   7.30343534
_cell_angle_alpha   90.00000000
_cell_angle_beta   90.00000000
_cell_angle_gamma   90.00000000
_symmetry_Int_Tables_number   1
_chemical_formula_structural   TmAlO3
_chemical_formula_sum   'Tm4 Al4 O12'
_cell_volume   197.85392172
_cell_formula_units_Z   4
loop_
 _symmetry_equiv_pos_site_id
 _symmetry_equiv_pos_as_xyz
  1  'x, y, z'
loop_
 _atom_site_type_symbol
 _atom_site_label
 _atom_site_symmetry_multiplicity
 _atom_site_fract_x
 _atom_site_fract_y
 _atom_site_fract_z
 _atom_site_occupancy
  Tm  Tm0  1  0.01559734  0.93884347  0.75000000  1
  Tm  Tm1  1  0.48440266  0.43884347  0.75000000  1
  Tm  Tm2  1  0.51559734  0.56115653  0.25000000  1
  Tm  Tm3  1  0.98440266  0.06115653  0.25000000  1
  Al  Al4  1  -0.00000000  0.50000000  -0.00000000  1
  Al  Al5  1  -0.00000000  0.50000000  0.50000000  1
  Al  Al6  1  0.50000000  -0.00000000  -0.00000000  1
  Al  Al7  1  0.50000000  -0.00000000  0.50000000  1
  O  O8  1  0.09502940  0.47226653  0.25000000  1
  O  O9  1  0.20075517  0.20218169  0.54950360  1
  O  O10  1  0.20075517  0.20218169  0.95049640  1
  O  O11  1  0.29924483  0.70218169  0.95049640  1
  O  O12  1  0.29924483  0.70218169  0.54950360  1
  O  O13  1  0.40497060  0.97226653  0.25000000  1
  O  O14  1  0.59502940  0.02773347  0.75000000  1
  O  O15  1  0.70075517  0.29781831  0.04950360  1
  O  O16  1  0.70075517  0.29781831  0.45049640  1
  O  O17  1  0.79924483  0.79781831  0.04950360  1
  O  O18  1  0.79924483  0.79781831  0.45049640  1
  O  O19  1  0.90497060  0.52773347  0.75000000  1
